T1.3-Development of benchmarks/Data of selected test power systems/Transmission/8. ACTIVSg2000/ACTIVSg2000.EPC
title
This is a synthetic power system model that does NOT represent the actual grid. It was developed as part of the US ARPA-E Grid 
Data research project and contains no CEII.
Reference: A.B. Birchfield, T. Xu, K.M. Gegner, K.S. Shetye, and T.J. Overbye, "Grid Structural Characteristics as Validation 
Criteria for Synthetic Networks," IEEE Transactions on Power Systems, vol. 32, no. 4, pp. 3258-3265, July 2017.

Case Version: Feb. 3, 2018
!
comments
!
solution parameters
tap    1    tcul  enabled/disabled
phas   1    ps    enabled/disabled
area   1    area  enabled/disabled
svd    1    svd   enabled/disabled
dctap  1    dc    enabled/disabled
gcd    0    gcd   enabled/disabled
jump  0.000200    jumper threshold
toler   0.1000    newton tolerance
sbase 100.0000    system mva base
!
substation data  [ 1250]           no  name
      1  "ODESSA 2"    : 31.906736 -102.262348
      2  "PRESIDIO 2"    : 29.888046 -104.519139
      3  "O DONNELL 1"    : 32.926389 -101.647778
      4  "BIG SPRING 5"    : 32.207500 -101.388333
      5  "VAN HORN"    : 31.093480 -104.624514
      6  "IRAAN 2"    : 30.931467 -102.201433
      7  "PRESIDIO 1"    : 29.600000 -104.300000
      8  "SANDERSON"    : 30.028067 -101.970461
      9  "MONAHANS 2"    : 31.484586 -103.161046
     10  "GRANDFALLS"    : 31.169523 -103.085134
     11  "MARFA"    : 30.285296 -104.005761
     12  "GARDEN CITY"    : 31.763075 -101.501775
     13  "ODESSA 4"    : 31.725171 -102.413607
     14  "NOTREES"    : 31.799171 -102.632933
     15  "MIDLAND 4"    : 31.979427 -102.132366
     16  "BIG SPRING 1"    : 31.992500 -101.116700
     17  "O DONNELL 2"    : 32.929014 -101.578617
     18  "ODESSA 6"    : 31.969312 -102.630882
     19  "BIG SPRINGS"    : 32.039000 -101.220000
     20  "MIDLAND 2"    : 32.321673 -102.042298
     21  "COAHOMA"    : 32.879511 -101.246784
     22  "MIDLAND 3"    : 31.992384 -102.081464
     23  "ALPINE"    : 29.802094 -103.222360
     24  "FORT DAVIS"    : 31.004969 -103.759065
     25  "MCCAMEY 1"    : 31.209200 -102.241700
     26  "BIG SPRING 4"    : 31.991442 -101.302637
     27  "CRANE"    : 31.186888 -102.596253
     28  "ODESSA 5"    : 31.799158 -102.474090
     29  "FORT STOCKTO"    : 30.772575 -102.505808
     30  "ANDREWS"    : 32.335729 -102.697303
     31  "FORSAN"    : 32.140800 -101.398600
     32  "BIG LAKE"    : 31.272551 -101.172783
     33  "MIDLAND 5"    : 32.053604 -102.201660
     34  "OZONA"    : 30.575618 -101.331239
     35  "MONAHANS 1"    : 31.583900 -102.963300
     36  "STANTON"    : 32.489818 -101.754488
     37  "ODONNELL"    : 32.927010 -101.764414
     38  "LENORAH"    : 32.235300 -101.836700
     39  "IRAAN 3"    : 30.884700 -101.920800
     40  "BIG SPRING 6"    : 32.273182 -101.422436
     41  "ODESSA 3"    : 32.001129 -102.312423
     42  "BIG SPRING 3"    : 32.100823 -101.451385
     43  "BIG SPRING 7"    : 32.102911 -101.365434
     44  "MIDLAND 1"    : 31.517628 -101.918007
     45  "IRAAN 1"    : 30.917800 -102.086700
     46  "ODESSA 1"    : 31.840300 -102.326400
     47  "FORT STOCKTO"    : 30.807272 -102.355628
     48  "FORT STOCKTO"    : 30.747459 -102.790792
     49  "BIG SPRING 2"    : 31.936100 -101.298300
     50  "KERMIT"    : 31.696251 -103.138992
     51  "PECOS"    : 31.803547 -103.599914
     52  "SHEFFIELD"    : 30.596998 -101.784530
     53  "MCCAMEY 2"    : 31.139200 -102.225300
     54  "LAMESA"    : 32.929648 -102.133506
     55  "GOLDSMITH"    : 31.995000 -102.828333
     56  "RALLS 2"    : 33.658671 -101.531037
     57  "PARIS 3"    : 33.683869 -95.344733
     58  "SAVOY"    : 33.628143 -96.367605
     59  "HONEY GROVE"    : 33.615167 -95.900109
     60  "MEMPHIS"    : 34.857258 -100.512868
     61  "IOWA PARK"    : 33.973297 -98.721096
     62  "VERNON 2"    : 33.899813 -99.773497
     63  "PANHANDLE 2"    : 35.238333 -101.310833
     64  "CHILDRESS"    : 34.447226 -100.809848
     65  "FORESTBURG"    : 33.471617 -97.445189
     66  "SHERMAN 3"    : 33.627623 -96.767394
     67  "PANHANDLE 4"    : 35.427500 -101.253056
     68  "WICHITA FALL"    : 33.943784 -98.523064
     69  "PARIS 2"    : 33.696800 -95.557700
     70  "WICHITA FALL"    : 33.864515 -98.491046
     71  "WHEELER"    : 35.830763 -100.765905
     72  "DEPORT"    : 33.482646 -95.320088
     73  "WICHITA FALL"    : 34.004783 -98.388757
     74  "SILVERTON"    : 34.457478 -101.287161
     75  "BONHAM"    : 33.708311 -96.240654
     76  "MATADOR"    : 33.710684 -100.384217
     77  "ARTHUR CITY"    : 33.857868 -95.649137
     78  "LEONARD"    : 33.441440 -96.179163
     79  "GORDONVILLE"    : 33.830932 -96.839764
     80  "KNOX CITY"    : 33.431837 -99.853667
     81  "WICHITA FALL"    : 33.894941 -98.543670
     82  "LINDSAY"    : 33.615855 -97.310834
     83  "ECTOR"    : 33.553520 -96.282897
     84  "SUNSET"    : 33.455991 -97.751818
     85  "CLARKSVILLE"    : 33.663063 -94.997258
     86  "PANHANDLE 3"    : 35.386038 -101.578572
     87  "SADLER"    : 33.737974 -96.839543
     88  "WHITESBORO"    : 33.743893 -96.936121
     89  "SHEPPARD AFB"    : 33.969523 -98.509016
     90  "POTTSBORO"    : 33.800717 -96.725989
     91  "BELLS"    : 33.623645 -96.427874
     92  "CROSBYTON"    : 33.774479 -100.990114
     93  "ELECTRA"    : 34.131688 -99.106624
     94  "PATTONVILLE"    : 33.402250 -95.483203
     95  "HENRIETTA"    : 33.758490 -98.202251
     96  "PANHANDLE 6"    : 34.900760 -100.994549
     97  "BOWIE"    : 33.520572 -97.956120
     98  "WICHITA FALL"    : 33.913300 -98.493100
     99  "WHITE DEER"    : 35.478900 -101.243900
    100  "ROXTON"    : 33.576823 -95.809701
    101  "VERNON 1"    : 34.290000 -99.364722
    102  "DENISON 2"    : 33.770785 -96.604061
    103  "SUMNER"    : 33.745236 -95.744327
    104  "GAINESVILLE"    : 33.661583 -97.176350
    105  "ASPERMONT"    : 33.183064 -100.245133
    106  "WICHITA FALL"    : 33.799085 -98.509840
    107  "WINDTHORST"    : 33.512628 -98.457627
    108  "HOWE"    : 33.450768 -96.742245
    109  "ARCHER 2"    : 33.493056 -98.581944
    110  "COLLINSVILLE"    : 33.537706 -96.906575
    111  "JAYTON"    : 32.969722 -100.524167
    112  "MUENSTER 1"    : 33.733006 -97.428406
    113  "PADUCAH"    : 33.994322 -100.287247
    114  "NOCONA"    : 33.793074 -97.963802
    115  "DODD CITY"    : 33.615539 -96.072156
    116  "WICHITA FALL"    : 33.862500 -98.589400
    117  "MONTAGUE"    : 33.626904 -97.687873
    118  "SPUR"    : 33.341053 -100.714732
    119  "ARCHER 1"    : 33.495278 -98.500000
    120  "ANNONA"    : 33.498221 -94.890845
    121  "SEYMOUR"    : 33.621145 -99.243765
    122  "DENISON 1"    : 33.727126 -96.470794
    123  "PANHANDLE 5"    : 35.350300 -101.540000
    124  "RALLS 1"    : 33.661111 -101.390000
    125  "SHERMAN 1"    : 33.582573 -96.617893
    126  "WHITEWRIGHT"    : 33.494577 -96.396115
    127  "SHERMAN 2"    : 33.604131 -96.550405
    128  "ROCHESTER"    : 33.322836 -99.642126
    129  "BURKBURNETT"    : 34.103273 -98.622467
    130  "MUENSTER 2"    : 33.682081 -97.382855
    131  "ARCHER CITY"    : 33.527396 -98.884782
    132  "PETROLIA"    : 34.008308 -98.259320
    133  "PARIS 1"    : 33.630800 -95.590000
    134  "BAGWELL"    : 33.801868 -95.151966
    135  "TELEPHONE"    : 33.778716 -95.996823
    136  "PANHANDLE 1"    : 35.442778 -101.372778
    137  "VAN ALSTYNE"    : 33.435660 -96.549913
    138  "TIOGA"    : 33.464643 -96.892724
    139  "VALLEY VIEW"    : 33.458028 -97.128552
    140  "MIAMI"    : 35.653889 -100.538611
    141  "TRENTON"    : 33.439125 -96.311485
    142  "HASKELL"    : 33.122685 -99.650389
    143  "SAINT JO"    : 33.741367 -97.535329
    144  "KERRVILLE"    : 30.036701 -99.163039
    145  "SWEETWATER 4"    : 32.360600 -100.338900
    146  "LEAKEY"    : 29.644470 -99.682471
    147  "HAMLIN"    : 32.857004 -100.124032
    148  "MERKEL 3"    : 32.473621 -100.032723
    149  "COLEMAN"    : 31.736902 -99.567791
    150  "SONORA"    : 30.441414 -100.560620
    151  "CAMP WOOD"    : 29.674700 -100.078588
    152  "LLANO"    : 30.653746 -98.918266
    153  "WILLOW CITY"    : 30.437069 -98.708714
    154  "ABILENE 4"    : 32.335677 -99.667488
    155  "KINGSLAND"    : 30.672818 -98.442748
    156  "ROSCOE 6"    : 32.415212 -100.573539
    157  "BLACKWELL"    : 32.198100 -100.268600
    158  "CHRISTOVAL"    : 31.085435 -100.678820
    159  "LUEDERS"    : 32.868619 -99.694492
    160  "COLORADO CIT"    : 32.314505 -100.918356
    161  "STAMFORD"    : 32.940911 -99.850964
    162  "ELDORADO"    : 30.883539 -100.595464
    163  "SAN SABA"    : 31.157093 -98.763991
    164  "ABILENE 2"    : 32.625600 -99.492800
    165  "LOMETA"    : 31.257224 -98.376742
    166  "SAN ANGELO 1"    : 31.509720 -100.322075
    167  "TUSCOLA"    : 32.274081 -99.826041
    168  "ABILENE 7"    : 32.333551 -99.927724
    169  "SNYDER 1"    : 32.720400 -100.995200
    170  "CHEROKEE"    : 30.939820 -99.079893
    171  "RICHLAND SPR"    : 31.517913 -99.135467
    172  "ROSCOE 2"    : 32.469400 -100.666400
    173  "BALLINGER"    : 31.738576 -99.934162
    174  "SILVER"    : 32.050000 -100.691700
    175  "ROSCOE 5"    : 32.312200 -100.530300
    176  "ANSON"    : 32.747863 -99.905394
    177  "DEL RIO"    : 29.837220 -101.212436
    178  "HUNT"    : 30.095115 -99.628211
    179  "WINGATE"    : 32.214024 -100.057120
    180  "STERLING CIT"    : 31.926100 -100.928100
    181  "ROSCOE 4"    : 32.236944 -100.483300
    182  "BRADY"    : 31.176951 -99.616412
    183  "TRENT 1"    : 32.430100 -100.235652
    184  "OVALO"    : 32.120249 -99.753027
    185  "NOLAN"    : 32.287800 -100.100000
    186  "MILES"    : 31.592013 -100.192616
    187  "BRACKETTVILL"    : 29.234722 -100.209167
    188  "MASON"    : 30.843122 -99.570053
    189  "BRACKETTVILL"    : 29.395621 -100.439985
    190  "ABILENE 6"    : 32.362783 -99.817314
    191  "HERMLEIGH"    : 32.588600 -100.672800
    192  "MERKEL 1"    : 32.318221 -100.176986
    193  "LORAINE 1"    : 32.437500 -100.744400
    194  "ABILENE 1"    : 32.514400 -99.656400
    195  "ROCKSPRINGS"    : 29.988092 -100.286076
    196  "MERKEL 2"    : 32.311556 -100.061589
    197  "FLUVANNA 2"    : 32.947930 -101.147784
    198  "DYESS AFB"    : 32.415823 -99.906230
    199  "HAWLEY"    : 32.630473 -99.830642
    200  "BUCHANAN DAM"    : 30.936768 -98.467066
...
bus data  [2000]               ty  vsched   volt     angle    ar zone  vmax   vmin   date_in date_out pid L own st  latitude  longitude island    sdmon   vmax1      vmin1      dvmax subst
   1001 "ODESSA 2 0  " 115.0000 " "  0  :  1 0.979436  0.979436  -22.734844    1    9 -1.0000 -1.0000   400101   391231   0 0   1 0   0.000000   0.000000     0 0   -1.00000   -1.00000    0.00000 1 "ODESSA 2"     1 -1 " " 
   1002 "PRESIDIO 2 0" 115.0000 " "  0  :  1 1.012736  1.012736  -18.088545    1    9 -1.0000 -1.0000   400101   391231   0 0   1 0   0.000000   0.000000     0 0   -1.00000   -1.00000    0.00000 2 "PRESIDIO 2"     1 -1 " " 
   1003 "O DONNELL ~1" 115.0000 " "  0  :  1 1.009263  1.009263  -17.086699    1    9 -1.0000 -1.0000   400101   391231   0 0   1 0   0.000000   0.000000     0 0   -1.00000   -1.00000    0.00000 3 "O DONNELL 1"     1 -1 " " 
   1004 "O DONNELL ~2" 230.0000 " "  0  :  2 1.010000 1.013071  -18.933999    1    9 -1.0000 -1.0000   400101   391231   0 0   1 0   0.000000   0.000000     0 0   -1.00000   -1.00000    0.00000 3 "O DONNELL 1"     1 -1 " " 
   1005 "BIG SPRING~8" 115.0000 " "  0  :  1 1.005576  1.005576  -16.077157    1    9 -1.0000 -1.0000   400101   391231   0 0   1 0   0.000000   0.000000     0 0   -1.00000   -1.00000    0.00000 4 "BIG SPRING 5"     1 -1 " " 
   1006 "BIG SPRING~9"  13.8000 " "  0  :  2 1.000000 1.000000  -13.905591    1    9 -1.0000 -1.0000   400101   391231   0 0   1 0   0.000000   0.000000     0 0   -1.00000   -1.00000    0.00000 4 "BIG SPRING 5"     1 -1 " " 
   1007 "VAN HORN 0  " 115.0000 " "  0  :  1 1.030000 1.020000  -18.467212    1    9 -1.0000 -1.0000   400101   391231   0 0   1 0   0.000000   0.000000     0 0   -1.00000   -1.00000    0.00000 5 "VAN HORN"     1 -1 " " 
   1008 "IRAAN 2 0   " 115.0000 " "  0  :  1 1.019285  1.019285  -8.605207    1    9 -1.0000 -1.0000   400101   391231   0 0   1 0   0.000000   0.000000     0 0   -1.00000   -1.00000    0.00000 6 "IRAAN 2"     1 -1 " " 
   1009 "IRAAN 2 1   "  13.8000 " "  0  :  2 1.000000 1.009240  -5.309598    1    9 -1.0000 -1.0000   400101   391231   0 0   1 0   0.000000   0.000000     0 0   -1.00000   -1.00000    0.00000 6 "IRAAN 2"     1 -1 " " 
   1010 "PRESIDIO 1 0" 115.0000 " "  0  :  1 1.030000 1.020000  -16.792355    1    9 -1.0000 -1.0000   400101   391231   0 0   1 0   0.000000   0.000000     0 0   -1.00000   -1.00000    0.00000 7 "PRESIDIO 1"     1 -1 " " 
   1011 "PRESIDIO 1 1"  22.0000 " "  0  :  2 1.000000 1.020211  -15.009826    1    9 -1.0000 -1.0000   400101   391231   0 0   1 0   0.000000   0.000000     0 0   -1.00000   -1.00000    0.00000 7 "PRESIDIO 1"     1 -1 " " 
   1012 "SANDERSON 0 " 115.0000 " "  0  :  1 1.030000 1.005992  -25.342783    1    9 -1.0000 -1.0000   400101   391231   0 0   1 0   0.000000   0.000000     0 0   -1.00000   -1.00000    0.00000 8 "SANDERSON"     1 -1 " " 
   1013 "MONAHANS 2 0" 115.0000 " "  0  :  1 1.005677  1.005677  -15.436565    1    9 -1.0000 -1.0000   400101   391231   0 0   1 0   0.000000   0.000000     0 0   -1.00000   -1.00000    0.00000 9 "MONAHANS 2"     1 -1 " " 
   1014 "GRANDFALLS 0" 115.0000 " "  0  :  1 1.012350  1.012350  -11.913250    1    9 -1.0000 -1.0000   400101   391231   0 0   1 0   0.000000   0.000000     0 0   -1.00000   -1.00000    0.00000 10 "GRANDFALLS"     1 -1 " " 
   1015 "MARFA 0     " 115.0000 " "  0  :  1 1.021818  1.021818  -18.214501    1    9 -1.0000 -1.0000   400101   391231   0 0   1 0   0.000000   0.000000     0 0   -1.00000   -1.00000    0.00000 11 "MARFA"     1 -1 " " 
   1016 "GARDEN CIT~1" 115.0000 " "  0  :  1 1.030000 1.017407  -15.485448    1    9 -1.0000 -1.0000   400101   391231   0 0   1 0   0.000000   0.000000     0 0   -1.00000   -1.00000    0.00000 12 "GARDEN CITY"     1 -1 " " 
   1017 "ODESSA 4 0  " 115.0000 " "  0  :  1 0.981673  0.981673  -21.426222    1    9 -1.0000 -1.0000   400101   391231   0 0   1 0   0.000000   0.000000     0 0   -1.00000   -1.00000    0.00000 13 "ODESSA 4"     1 -1 " " 
   1018 "NOTREES 0   " 115.0000 " "  0  :  1 0.991147  0.991147  -20.216148    1    9 -1.0000 -1.0000   400101   391231   0 0   1 0   0.000000   0.000000     0 0   -1.00000   -1.00000    0.00000 14 "NOTREES"     1 -1 " " 
   1019 "MIDLAND 4 0 " 115.0000 " "  0  :  1 1.030000 0.999492  -22.320417    1    9 -1.0000 -1.0000   400101   391231   0 0   1 0   0.000000   0.000000     0 0   -1.00000   -1.00000    0.00000 15 "MIDLAND 4"     1 -1 " " 
   1020 "BIG SPRING~1" 115.0000 " "  0  :  1 1.030000 1.020000  -15.230064    1    9 -1.0000 -1.0000   400101   391231   0 0   1 0   0.000000   0.000000     0 0   -1.00000   -1.00000    0.00000 16 "BIG SPRING 1"     1 -1 " " 
   1021 "BIG SPRING~2"  13.8000 " "  0  :  2 1.000000 1.000000  -8.606761    1    9 -1.0000 -1.0000   400101   391231   0 0   1 0   0.000000   0.000000     0 0   -1.00000   -1.00000    0.00000 16 "BIG SPRING 1"     1 -1 " " 
   1022 "O DONNELL ~3" 115.0000 " "  0  :  1 1.012423  1.012423  -16.204693    1    9 -1.0000 -1.0000   400101   391231   0 0   1 0   0.000000   0.000000     0 0   -1.00000   -1.00000    0.00000 17 "O DONNELL 2"     1 -1 " " 
   1023 "O DONNELL ~4"  13.8000 " "  0  :  2 1.010000 1.010000  -7.300393    1    9 -1.0000 -1.0000   400101   391231   0 0   1 0   0.000000   0.000000     0 0   -1.00000   -1.00000    0.00000 17 "O DONNELL 2"     1 -1 " " 
   1024 "ODESSA 6 0  " 115.0000 " "  0  :  1 0.994495  0.994495  -19.200249    1    9 -1.0000 -1.0000   400101   391231   0 0   1 0   0.000000   0.000000     0 0   -1.00000   -1.00000    0.00000 18 "ODESSA 6"     1 -1 " " 
   1025 "BIG SPRIN~14" 115.0000 " "  0  :  1 1.016288  1.016288  -14.170406    1    9 -1.0000 -1.0000   400101   391231   0 0   1 0   0.000000   0.000000     0 0   -1.00000   -1.00000    0.00000 19 "BIG SPRINGS"     1 -1 " " 
   1026 "BIG SPRIN~15"  13.8000 " "  0  :  2 1.000000 1.000000  -4.641462    1    9 -1.0000 -1.0000   400101   391231   0 0   1 0   0.000000   0.000000     0 0   -1.00000   -1.00000    0.00000 19 "BIG SPRINGS"     1 -1 " " 
   1027 "MIDLAND 2 0 " 115.0000 " "  0  :  1 1.030000 1.005305  -25.833336    1    9 -1.0000 -1.0000   400101   391231   0 0   1 0   0.000000   0.000000     0 0   -1.00000   -1.00000    0.00000 20 "MIDLAND 2"     1 -1 " " 
   1028 "COAHOMA 0   " 115.0000 " "  0  :  1 1.015416  1.015416  -17.717136    1    9 -1.0000 -1.0000   400101   391231   0 0   1 0   0.000000   0.000000     0 0   -1.00000   -1.00000    0.00000 21 "COAHOMA"     1 -1 " " 
   1029 "MIDLAND 3 0 " 115.0000 " "  0  :  1 1.030000 1.002417  -24.858888    1    9 -1.0000 -1.0000   400101   391231   0 0   1 0   0.000000   0.000000     0 0   -1.00000   -1.00000    0.00000 22 "MIDLAND 3"     1 -1 " " 
   1030 "ALPINE 0    " 115.0000 " "  0  :  1 1.012230  1.012230  -13.411430    1    9 -1.0000 -1.0000   400101   391231   0 0   1 0   0.000000   0.000000     0 0   -1.00000   -1.00000    0.00000 23 "ALPINE"     1 -1 " " 
   1031 "FORT DAVIS 0" 115.0000 " "  0  :  1 1.012189  1.012189  -17.672258    1    9 -1.0000 -1.0000   400101   391231   0 0   1 0   0.000000   0.000000     0 0   -1.00000   -1.00000    0.00000 24 "FORT DAVIS"     1 -1 " " 
   1032 "MCCAMEY 1 0 " 115.0000 " "  0  :  1 1.000658  1.000658  -12.280471    1    9 -1.0000 -1.0000   400101   391231   0 0   1 0   0.000000   0.000000     0 0   -1.00000   -1.00000    0.00000 25 "MCCAMEY 1"     1 -1 " " 
   1033 "MCCAMEY 1 1 " 230.0000 " "  0  :  2 1.030000 1.016754  -16.898515    1    9 -1.0000 -1.0000   400101   391231   0 0   1 0   0.000000   0.000000     0 0   -1.00000   -1.00000    0.00000 25 "MCCAMEY 1"     1 -1 " " 
   1034 "BIG SPRING~6" 115.0000 " "  0  :  1 1.004535  1.004535  -14.320349    1    9 -1.0000 -1.0000   400101   391231   0 0   1 0   0.000000   0.000000     0 0   -1.00000   -1.00000    0.00000 26 "BIG SPRING 4"     1 -1 " " 
   1035 "BIG SPRING~7"  13.8000 " "  0  :  2 1.000000 1.000000  -11.030416    1    9 -1.0000 -1.0000   400101   391231   0 0   1 0   0.000000   0.000000     0 0   -1.00000   -1.00000    0.00000 26 "BIG SPRING 4"     1 -1 " " 
   1036 "CRANE 0     " 115.0000 " "  0  :  1 0.997625  0.997625  -12.526972    1    9 -1.0000 -1.0000   400101   391231   0 0   1 0   0.000000   0.000000     0 0   -1.00000   -1.00000    0.00000 27 "CRANE"     1 -1 " " 
   1037 "ODESSA 5 0  " 115.0000 " "  0  :  1 0.974504  0.974504  -22.544800    1    9 -1.0000 -1.0000   400101   391231   0 0   1 0   0.000000   0.000000     0 0   -1.00000   -1.00000    0.00000 28 "ODESSA 5"     1 -1 " " 
   1038 "FORT STOCK~1" 115.0000 " "  0  :  1 1.016567  1.016567  -7.646607    1    9 -1.0000 -1.0000   400101   391231   0 0   1 0   0.000000   0.000000     0 0   -1.00000   -1.00000    0.00000 29 "FORT STOCKTON 1"     1 -1 " " 
   1039 "FORT STOCK~2"  22.0000 " "  0  :  2 1.000000 1.000000  -2.263052    1    9 -1.0000 -1.0000   400101   391231   0 0   1 0   0.000000   0.000000     0 0   -1.00000   -1.00000    0.00000 29 "FORT STOCKTON 1"     1 -1 " " 
   1040 "ANDREWS 0   " 115.0000 " "  0  :  1 0.994015  0.994015  -20.480041    1    9 -1.0000 -1.0000   400101   391231   0 0   1 0   0.000000   0.000000     0 0   -1.00000   -1.00000    0.00000 30 "ANDREWS"     1 -1 " " 
   1041 "FORSAN 0    " 115.0000 " "  0  :  1 1.001775  1.001775  -15.107504    1    9 -1.0000 -1.0000   400101   391231   0 0   1 0   0.000000   0.000000     0 0   -1.00000   -1.00000    0.00000 31 "FORSAN"     1 -1 " " 
   1042 "FORSAN 1    "  13.8000 " "  0  :  2 1.000000 1.001775  -15.107504    1    9 -1.0000 -1.0000   400101   391231   0 0   1 0   0.000000   0.000000     0 0   -1.00000   -1.00000    0.00000 31 "FORSAN"     1 -1 " " 
   1043 "FORSAN 2    "  13.8000 " "  0  :  2 1.000000 1.000000  -11.864177    1    9 -1.0000 -1.0000   400101   391231   0 0   1 0   0.000000   0.000000     0 0   -1.00000   -1.00000    0.00000 31 "FORSAN"     1 -1 " " 
   1044 "BIG LAKE 0  " 115.0000 " "  0  :  1 1.006755  1.006755  -25.963881    1    9 -1.0000 -1.0000   400101   391231   0 0   1 0   0.000000   0.000000     0 0   -1.00000   -1.00000    0.00000 32 "BIG LAKE"     1 -1 " " 
   1045 "MIDLAND 5 0 " 115.0000 " "  0  :  1 0.977425  0.977425  -24.447556    1    9 -1.0000 -1.0000   400101   391231   0 0   1 0   0.000000   0.000000     0 0   -1.00000   -1.00000    0.00000 33 "MIDLAND 5"     1 -1 " " 
   1046 "OZONA 0     " 115.0000 " "  0  :  1 1.030000 1.017634  -22.491396    1    9 -1.0000 -1.0000   400101   391231   0 0   1 0   0.000000   0.000000     0 0   -1.00000   -1.00000    0.00000 34 "OZONA"     1 -1 " " 
   1047 "MONAHANS 1 0" 115.0000 " "  0  :  1 1.005251  1.005251  -13.350050    1    9 -1.0000 -1.0000   400101   391231   0 0   1 0   0.000000   0.000000     0 0   -1.00000   -1.00000    0.00000 35 "MONAHANS 1"     1 -1 " " 
   1048 "MONAHANS 1 1"  18.0000 " "  0  :  2 1.000000 1.005251  -13.350050    1    9 -1.0000 -1.0000   400101   391231   0 0   1 0   0.000000   0.000000     0 0   -1.00000   -1.00000    0.00000 35 "MONAHANS 1"     1 -1 " " 
   1049 "MONAHANS 1 2"  18.0000 " "  0  :  2 1.000000 1.005251  -13.350050    1    9 -1.0000 -1.0000   400101   391231   0 0   1 0   0.000000   0.000000     0 0   -1.00000   -1.00000    0.00000 35 "MONAHANS 1"     1 -1 " " 
   1050 "MONAHANS 1 3"  18.0000 " "  0  :  2 1.000000 1.000000  -8.284789    1    9 -1.0000 -1.0000   400101   391231   0 0   1 0   0.000000   0.000000     0 0   -1.00000   -1.00000    0.00000 35 "MONAHANS 1"     1 -1 " " 
   1051 "MONAHANS 1 4"  18.0000 " "  0  :  2 1.000000 1.000000  -6.807389    1    9 -1.0000 -1.0000   400101   391231   0 0   1 0   0.000000   0.000000     0 0   -1.00000   -1.00000    0.00000 35 "MONAHANS 1"     1 -1 " " 
   1052 "MONAHANS 1 5"  18.0000 " "  0  :  2 1.000000 1.000000  -9.134369    1    9 -1.0000 -1.0000   400101   391231   0 0   1 0   0.000000   0.000000     0 0   -1.00000   -1.00000    0.00000 35 "MONAHANS 1"     1 -1 " " 
   1053 "MONAHANS 1 6" 230.0000 " "  0  :  2 1.000000 1.017409  -17.336160    1    9 -1.0000 -1.0000   400101   391231   0 0   1 0   0.000000   0.000000     0 0   -1.00000   -1.00000    0.00000 35 "MONAHANS 1"     1 -1 " " 
   1054 "STANTON 0   " 115.0000 " "  0  :  1 1.003684  1.003684  -22.292331    1    9 -1.0000 -1.0000   400101   391231   0 0   1 0   0.000000   0.000000     0 0   -1.00000   -1.00000    0.00000 36 "STANTON"     1 -1 " " 
   1055 "ODONNELL 0  " 115.0000 " "  0  :  1 1.001405  1.001405  -18.129563    1    9 -1.0000 -1.0000   400101   391231   0 0   1 0   0.000000   0.000000     0 0   -1.00000   -1.00000    0.00000 37 "ODONNELL"     1 -1 " " 
   1056 "LENORAH 0   " 115.0000 " "  0  :  1 1.030000 1.020000  -21.819612    1    9 -1.0000 -1.0000   400101   391231   0 0   1 0   0.000000   0.000000     0 0   -1.00000   -1.00000    0.00000 38 "LENORAH"     1 -1 " " 
   1057 "LENORAH 1   "  18.0000 " "  0  :  2 1.000000 1.020000  -21.819612    1    9 -1.0000 -1.0000   400101   391231   0 0   1 0   0.000000   0.000000     0 0   -1.00000   -1.00000    0.00000 38 "LENORAH"     1 -1 " " 
   1058 "IRAAN 3 0   " 115.0000 " "  0  :  1 1.019374  1.019374  -11.220883    1    9 -1.0000 -1.0000   400101   391231   0 0   1 0   0.000000   0.000000     0 0   -1.00000   -1.00000    0.00000 39 "IRAAN 3"     1 -1 " " 
   1059 "IRAAN 3 1   "  22.0000 " "  0  :  2 1.040000 1.019374  -11.220883    1    9 -1.0000 -1.0000   400101   391231   0 0   1 0   0.000000   0.000000     0 0   -1.00000   -1.00000    0.00000 39 "IRAAN 3"     1 -1 " " 
   1060 "IRAAN 3 2   "  22.0000 " "  0  :  2 1.040000 1.019374  -11.220883    1    9 -1.0000 -1.0000   400101   391231   0 0   1 0   0.000000   0.000000     0 0   -1.00000   -1.00000    0.00000 39 "IRAAN 3"     1 -1 " " 
   1061 "BIG SPRIN~10" 115.0000 " "  0  :  1 1.006557  1.006557  -17.219364    1    9 -1.0000 -1.0000   400101   391231   0 0   1 0   0.000000   0.000000     0 0   -1.00000   -1.00000    0.00000 40 "BIG SPRING 6"     1 -1 " " 
   1062 "BIG SPRIN~11"  13.8000 " "  0  :  2 1.010000 1.006557  -17.219364    1    9 -1.0000 -1.0000   400101   391231   0 0   1 0   0.000000   0.000000     0 0   -1.00000   -1.00000    0.00000 40 "BIG SPRING 6"     1 -1 " " 
   1063 "BIG SPRIN~12"  13.8000 " "  0  :  2 1.010000 1.006557  -17.219364    1    9 -1.0000 -1.0000   400101   391231   0 0   1 0   0.000000   0.000000     0 0   -1.00000   -1.00000    0.00000 40 "BIG SPRING 6"     1 -1 " " 
   1064 "ODESSA 3 0  " 115.0000 " "  0  :  1 0.972034  0.972034  -24.153272    1    9 -1.0000 -1.0000   400101   391231   0 0   1 0   0.000000   0.000000     0 0   -1.00000   -1.00000    0.00000 41 "ODESSA 3"     1 -1 " " 
   1065 "BIG SPRING~4" 115.0000 " "  0  :  1 1.004261  1.004261  -14.932578    1    9 -1.0000 -1.0000   400101   391231   0 0   1 0   0.000000   0.000000     0 0   -1.00000   -1.00000    0.00000 42 "BIG SPRING 3"     1 -1 " " 
   1066 "BIG SPRING~5"  13.8000 " "  0  :  2 1.000000 1.000000  -7.399054    1    9 -1.0000 -1.0000   400101   391231   0 0   1 0   0.000000   0.000000     0 0   -1.00000   -1.00000    0.00000 42 "BIG SPRING 3"     1 -1 " " 
   1067 "BIG SPRIN~13" 115.0000 " "  0  :  1 0.998595  0.998595  -15.682480    1    9 -1.0000 -1.0000   400101   391231   0 0   1 0   0.000000   0.000000     0 0   -1.00000   -1.00000    0.00000 43 "BIG SPRING 7"     1 -1 " " 
   1068 "MIDLAND 1 0 " 115.0000 " "  0  :  1 0.986803  0.986803  -16.436894    1    9 -1.0000 -1.0000   400101   391231   0 0   1 0   0.000000   0.000000     0 0   -1.00000   -1.00000    0.00000 44 "MIDLAND 1"     1 -1 " " 
   1069 "IRAAN 1 0   " 115.0000 " "  0  :  1 1.022560  1.022560  -8.732588    1    9 -1.0000 -1.0000   400101   391231   0 0   1 0   0.000000   0.000000     0 0   -1.00000   -1.00000    0.00000 45 "IRAAN 1"     1 -1 " " 
   1070 "IRAAN 1 1   "  13.8000 " "  0  :  2 1.040000 1.040000  -4.228777    1    9 -1.0000 -1.0000   400101   391231   0 0   1 0   0.000000   0.000000     0 0   -1.00000   -1.00000    0.00000 45 "IRAAN 1"     1 -1 " " 
   1071 "ODESSA 1 0  " 115.0000 " "  0  :  1 0.987027  0.987027  -21.474040    1    9 -1.0000 -1.0000   400101   391231   0 0   1 0   0.000000   0.000000     0 0   -1.00000   -1.00000    0.00000 46 "ODESSA 1"     1 -1 " " 
   1072 "ODESSA 1 1  "  18.0000 " "  0  :  2 1.010000 1.010000  -12.110027    1    9 -1.0000 -1.0000   400101   391231   0 0   1 0   0.000000   0.000000     0 0   -1.00000   -1.00000    0.00000 46 "ODESSA 1"     1 -1 " " 
   1073 "ODESSA 1 2  "  18.0000 " "  0  :  2 1.010000 1.010000  -5.681972    1    9 -1.0000 -1.0000   400101   391231   0 0   1 0   0.000000   0.000000     0 0   -1.00000   -1.00000    0.00000 46 "ODESSA 1"     1 -1 " " 
   1074 "ODESSA 1 3  "  18.0000 " "  0  :  2 1.010000 1.010000  -7.738009    1    9 -1.0000 -1.0000   400101   391231   0 0   1 0   0.000000   0.000000     0 0   -1.00000   -1.00000    0.00000 46 "ODESSA 1"     1 -1 " " 
   1075 "ODESSA 1 4  "  18.0000 " "  0  :  2 1.010000 1.010000  -10.505543    1    9 -1.0000 -1.0000   400101   391231   0 0   1 0   0.000000   0.000000     0 0   -1.00000   -1.00000    0.00000 46 "ODESSA 1"     1 -1 " " 
   1076 "ODESSA 1 5  "  18.0000 " "  0  :  2 1.010000 0.987027  -21.474040    1    9 -1.0000 -1.0000   400101   391231   0 0   1 0   0.000000   0.000000     0 0   -1.00000   -1.00000    0.00000 46 "ODESSA 1"     1 -1 " " 
   1077 "ODESSA 1 6  "  18.0000 " "  0  :  2 1.010000 0.987027  -21.474040    1    9 -1.0000 -1.0000   400101   391231   0 0   1 0   0.000000   0.000000     0 0   -1.00000   -1.00000    0.00000 46 "ODESSA 1"     1 -1 " " 
   1078 "ODESSA 1 7  "  18.0000 " "  0  :  2 1.010000 1.010000  -11.024659    1    9 -1.0000 -1.0000   400101   391231   0 0   1 0   0.000000   0.000000     0 0   -1.00000   -1.00000    0.00000 46 "ODESSA 1"     1 -1 " " 
   1079 "ODESSA 1 8  " 500.0000 " "  0  :  2 1.010000 1.016214  -38.582859    1    9 -1.0000 -1.0000   400101   391231   0 0   1 0   0.000000   0.000000     0 0   -1.00000   -1.00000    0.00000 46 "ODESSA 1"     1 -1 " " 
   1080 "ODESSA 1 9  "  18.0000 " "  0  :  2 1.010000 1.010000  -10.448676    1    9 -1.0000 -1.0000   400101   391231   0 0   1 0   0.000000   0.000000     0 0   -1.00000   -1.00000    0.00000 46 "ODESSA 1"     1 -1 " " 
   1081 "ODESSA 1 10 " 230.0000 " "  0  :  2 1.030000 1.020000  -18.691287    1    9 -1.0000 -1.0000   400101   391231   0 0   1 0   0.000000   0.000000     0 0   -1.00000   -1.00000    0.00000 46 "ODESSA 1"     1 -1 " " 
   1082 "FORT STOCK~3" 115.0000 " "  0  :  2 1.000000 1.019413  -5.910392    1    9 -1.0000 -1.0000   400101   391231   0 0   1 0   0.000000   0.000000     0 0   -1.00000   -1.00000    0.00000 47 "FORT STOCKTON 2"     1 -1 " " 
   1083 "FORT STOCK~4" 115.0000 " "  0  :  1 1.030000 1.018862  -9.886743    1    9 -1.0000 -1.0000   400101   391231   0 0   1 0   0.000000   0.000000     0 0   -1.00000   -1.00000    0.00000 48 "FORT STOCKTON 3"     1 -1 " " 
   1084 "BIG SPRING~3" 115.0000 " "  0  :  2 1.040000 1.022520  -16.467206    1    9 -1.0000 -1.0000   400101   391231   0 0   1 0   0.000000   0.000000     0 0   -1.00000   -1.00000    0.00000 49 "BIG SPRING 2"     1 -1 " " 
   1085 "KERMIT 0    " 115.0000 " "  0  :  1 1.008987  1.008987  -15.342869    1    9 -1.0000 -1.0000   400101   391231   0 0   1 0   0.000000   0.000000     0 0   -1.00000   -1.00000    0.00000 50 "KERMIT"     1 -1 " " 
   1086 "PECOS 0     " 115.0000 " "  0  :  1 1.030000 1.015374  -17.585057    1    9 -1.0000 -1.0000   400101   391231   0 0   1 0   0.000000   0.000000     0 0   -1.00000   -1.00000    0.00000 51 "PECOS"     1 -1 " " 
   1087 "SHEFFIELD 0 " 115.0000 " "  0  :  1 1.030000 1.020000  -16.125402    1    9 -1.0000 -1.0000   400101   391231   0 0   1 0   0.000000   0.000000     0 0   -1.00000   -1.00000    0.00000 52 "SHEFFIELD"     1 -1 " " 
   1088 "MCCAMEY 2 0 " 115.0000 " "  0  :  2 1.000000 1.000000  -11.878466    1    9 -1.0000 -1.0000   400101   391231   0 0   1 0   0.000000   0.000000     0 0   -1.00000   -1.00000    0.00000 53 "MCCAMEY 2"     1 -1 " " 
   1089 "LAMESA 0    " 115.0000 " "  0  :  1 0.980632  0.980632  -21.306753    1    9 -1.0000 -1.0000   400101   391231   0 0   1 0   0.000000   0.000000     0 0   -1.00000   -1.00000    0.00000 54 "LAMESA"     1 -1 " " 
   1090 "GOLDSMITH 0 " 115.0000 " "  0  :  2 1.020000 1.020000  -16.145053    1    9 -1.0000 -1.0000   400101   391231   0 0   1 0   0.000000   0.000000     0 0   -1.00000   -1.00000    0.00000 55 "GOLDSMITH"     1 -1 " " 
   1091 "RALLS 2 0   " 161.0000 " "  0  :  1 1.024831  1.024831  -31.017725    1    9 -1.0000 -1.0000   400101   391231   0 0   1 0   0.000000   0.000000     0 0   -1.00000   -1.00000    0.00000 56 "RALLS 2"     1 -1 " " 
   2001 "PARIS 3 0   " 161.0000 " "  0  :  1 1.001752  1.001752  -59.982147    2   11 -1.0000 -1.0000   400101   391231   0 0   1 0   0.000000   0.000000     0 0   -1.00000   -1.00000    0.00000 57 "PARIS 3"     1 -1 " " 
   2002 "SAVOY 0     " 500.0000 " "  0  :  1 1.011061  1.011061  -61.566631    2   11 -1.0000 -1.0000   400101   391231   0 0   1 0   0.000000   0.000000     0 0   -1.00000   -1.00000    0.00000 58 "SAVOY"     1 -1 " " 
   2003 "SAVOY 1     " 161.0000 " "  0  :  1 1.009338  1.009338  -63.828546    2   11 -1.0000 -1.0000   400101   391231   0 0   1 0   0.000000   0.000000     0 0   -1.00000   -1.00000    0.00000 58 "SAVOY"     1 -1 " " 
   2004 "SAVOY 2     "  13.8000 " "  0  :  2 1.020000 1.011061  -61.566631    2   11 -1.0000 -1.0000   400101   391231   0 0   1 0   0.000000   0.000000     0 0   -1.00000   -1.00000    0.00000 58 "SAVOY"     1 -1 " " 
   2005 "SAVOY 3     "  13.8000 " "  0  :  2 1.020000 1.011061  -61.566631    2   11 -1.0000 -1.0000   400101   391231   0 0   1 0   0.000000   0.000000     0 0   -1.00000   -1.00000    0.00000 58 "SAVOY"     1 -1 " " 
   2006 "SAVOY 4     "  13.8000 " "  0  :  2 1.020000 1.011061  -61.566631    2   11 -1.0000 -1.0000   400101   391231   0 0   1 0   0.000000   0.000000     0 0   -1.00000   -1.00000    0.00000 58 "SAVOY"     1 -1 " " 
   2007 "HONEY GROV~1" 161.0000 " "  0  :  1 1.002509  1.002509  -59.751902    2   11 -1.0000 -1.0000   400101   391231   0 0   1 0   0.000000   0.000000     0 0   -1.00000   -1.00000    0.00000 59 "HONEY GROVE"     1 -1 " " 
   2008 "MEMPHIS 0   " 161.0000 " "  0  :  1 1.016130  1.016130  -32.833005    2   10 -1.0000 -1.0000   400101   391231   0 0   1 0   0.000000   0.000000     0 0   -1.00000   -1.00000    0.00000 60 "MEMPHIS"     1 -1 " " 
   2009 "IOWA PARK 0 " 161.0000 " "  0  :  1 1.030000 1.020000  -45.215386    2   11 -1.0000 -1.0000   400101   391231   0 0   1 0   0.000000   0.000000     0 0   -1.00000   -1.00000    0.00000 61 "IOWA PARK"     1 -1 " " 
   2010 "VERNON 2 0  " 161.0000 " "  0  :  1 1.030000 1.020000  -36.405086    2   10 -1.0000 -1.0000   400101   391231   0 0   1 0   0.000000   0.000000     0 0   -1.00000   -1.00000    0.00000 62 "VERNON 2"     1 -1 " " 
   2011 "PANHANDLE ~2" 500.0000 " "  0  :  1 1.038870  1.038870  -32.100979    2   10 -1.0000 -1.0000   400101   391231   0 0   1 0   0.000000   0.000000     0 0   -1.00000   -1.00000    0.00000 63 "PANHANDLE 2"     1 -1 " " 
   2012 "PANHANDLE ~3" 161.0000 " "  0  :  1 1.027097  1.027097  -29.869241    2   10 -1.0000 -1.0000   400101   391231   0 0   1 0   0.000000   0.000000     0 0   -1.00000   -1.00000    0.00000 63 "PANHANDLE 2"     1 -1 " " 
   2013 "PANHANDLE ~4"  18.0000 " "  0  :  2 1.000000 1.030510  -29.761030    2   10 -1.0000 -1.0000   400101   391231   0 0   1 0   0.000000   0.000000     0 0   -1.00000   -1.00000    0.00000 63 "PANHANDLE 2"     1 -1 " " 
   2014 "CHILDRESS 0 " 161.0000 " "  0  :  1 1.014488  1.014488  -33.408935    2   10 -1.0000 -1.0000   400101   391231   0 0   1 0   0.000000   0.000000     0 0   -1.00000   -1.00000    0.00000 64 "CHILDRESS"     1 -1 " " 
   2015 "FORESTBURG 0" 161.0000 " "  0  :  1 1.006078  1.006078  -63.292789    2   11 -1.0000 -1.0000   400101   391231   0 0   1 0   0.000000   0.000000     0 0   -1.00000   -1.00000    0.00000 65 "FORESTBURG"     1 -1 " " 
   2016 "SHERMAN 3 0 " 161.0000 " "  0  :  1 1.006019  1.006019  -69.954795    2   11 -1.0000 -1.0000   400101   391231   0 0   1 0   0.000000   0.000000     0 0   -1.00000   -1.00000    0.00000 66 "SHERMAN 3"     1 -1 " " 
   2017 "PANHANDLE ~7" 500.0000 " "  0  :  1 1.030000 1.028392  -32.246830    2   10 -1.0000 -1.0000   400101   391231   0 0   1 0   0.000000   0.000000     0 0   -1.00000   -1.00000    0.00000 67 "PANHANDLE 4"     1 -1 " " 
   2018 "PANHANDLE ~8" 161.0000 " "  0  :  1 1.026492  1.026492  -31.456709    2   10 -1.0000 -1.0000   400101   391231   0 0   1 0   0.000000   0.000000     0 0   -1.00000   -1.00000    0.00000 67 "PANHANDLE 4"     1 -1 " " 
   2019 "PANHANDLE ~9"  20.0000 " "  0  :  2 1.040000 1.028392  -32.246830    2   10 -1.0000 -1.0000   400101   391231   0 0   1 0   0.000000   0.000000     0 0   -1.00000   -1.00000    0.00000 67 "PANHANDLE 4"     1 -1 " " 
   2020 "WICHITA F~12" 161.0000 " "  0  :  1 0.995175  0.995175  -44.885383    2   11 -1.0000 -1.0000   400101   391231   0 0   1 0   0.000000   0.000000     0 0   -1.00000   -1.00000    0.00000 68 "WICHITA FALLS 6"     1 -1 " " 
   2021 "PARIS 2 0   " 500.0000 " "  0  :  1 1.013873  1.013873  -56.702369    2   11 -1.0000 -1.0000   400101   391231   0 0   1 0   0.000000   0.000000     0 0   -1.00000   -1.00000    0.00000 69 "PARIS 2"     1 -1 " " 
   2022 "PARIS 2 1   " 161.0000 " "  0  :  1 1.010010  1.010010  -58.637546    2   11 -1.0000 -1.0000   400101   391231   0 0   1 0   0.000000   0.000000     0 0   -1.00000   -1.00000    0.00000 69 "PARIS 2"     1 -1 " " 
   2023 "PARIS 2 2   "  13.8000 " "  0  :  2 1.020000 1.020000  -55.139520    2   11 -1.0000 -1.0000   400101   391231   0 0   1 0   0.000000   0.000000     0 0   -1.00000   -1.00000    0.00000 69 "PARIS 2"     1 -1 " " 
   2024 "PARIS 2 3   "  13.8000 " "  0  :  2 1.020000 1.020000  -54.474073    2   11 -1.0000 -1.0000   400101   391231   0 0   1 0   0.000000   0.000000     0 0   -1.00000   -1.00000    0.00000 69 "PARIS 2"     1 -1 " " 
   2025 "WICHITA F~10" 161.0000 " "  0  :  1 0.994074  0.994074  -44.124136    2   11 -1.0000 -1.0000   400101   391231   0 0   1 0   0.000000   0.000000     0 0   -1.00000   -1.00000    0.00000 70 "WICHITA FALLS 4"     1 -1 " " 
   2026 "WHEELER 0   " 161.0000 " "  0  :  1 1.026480  1.026480  -31.081493    2   10 -1.0000 -1.0000   400101   391231   0 0   1 0   0.000000   0.000000     0 0   -1.00000   -1.00000    0.00000 71 "WHEELER"     1 -1 " " 
   2027 "DEPORT 0    " 161.0000 " "  0  :  1 1.002197  1.002197  -60.413018    2   11 -1.0000 -1.0000   400101   391231   0 0   1 0   0.000000   0.000000     0 0   -1.00000   -1.00000    0.00000 72 "DEPORT"     1 -1 " " 
   2028 "WICHITA FA~9" 161.0000 " "  0  :  1 0.994593  0.994593  -47.249778    2   11 -1.0000 -1.0000   400101   391231   0 0   1 0   0.000000   0.000000     0 0   -1.00000   -1.00000    0.00000 73 "WICHITA FALLS 3"     1 -1 " " 
   2029 "SILVERTON 0 " 161.0000 " "  0  :  1 1.020052  1.020052  -32.781385    2   10 -1.0000 -1.0000   400101   391231   0 0   1 0   0.000000   0.000000     0 0   -1.00000   -1.00000    0.00000 74 "SILVERTON"     1 -1 " " 
   2030 "BONHAM 0    " 161.0000 " "  0  :  1 0.988365  0.988365  -64.039783    2   11 -1.0000 -1.0000   400101   391231   0 0   1 0   0.000000   0.000000     0 0   -1.00000   -1.00000    0.00000 75 "BONHAM"     1 -1 " " 
   2031 "MATADOR 0   " 161.0000 " "  0  :  1 1.020459  1.020459  -29.638731    2   10 -1.0000 -1.0000   400101   391231   0 0   1 0   0.000000   0.000000     0 0   -1.00000   -1.00000    0.00000 76 "MATADOR"     1 -1 " " 
   2032 "ARTHUR CIT~1" 161.0000 " "  0  :  1 1.004536  1.004536  -59.146912    2   11 -1.0000 -1.0000   400101   391231   0 0   1 0   0.000000   0.000000     0 0   -1.00000   -1.00000    0.00000 77 "ARTHUR CITY"     1 -1 " " 
   2033 "LEONARD 0   " 161.0000 " "  0  :  1 0.990872  0.990872  -65.552183    2   11 -1.0000 -1.0000   400101   391231   0 0   1 0   0.000000   0.000000     0 0   -1.00000   -1.00000    0.00000 78 "LEONARD"     1 -1 " " 
   2034 "GORDONVILL~1" 161.0000 " "  0  :  1 1.004621  1.004621  -69.283118    2   11 -1.0000 -1.0000   400101   391231   0 0   1 0   0.000000   0.000000     0 0   -1.00000   -1.00000    0.00000 79 "GORDONVILLE"     1 -1 " " 
   2035 "KNOX CITY 0 " 161.0000 " "  0  :  1 1.015207  1.015207  -30.560737    2   10 -1.0000 -1.0000   400101   391231   0 0   1 0   0.000000   0.000000     0 0   -1.00000   -1.00000    0.00000 80 "KNOX CITY"     1 -1 " " 
   2036 "WICHITA F~13" 161.0000 " "  0  :  1 0.998941  0.998941  -44.483250    2   11 -1.0000 -1.0000   400101   391231   0 0   1 0   0.000000   0.000000     0 0   -1.00000   -1.00000    0.00000 81 "WICHITA FALLS 7"     1 -1 " " 
   2037 "LINDSAY 0   " 161.0000 " "  0  :  1 1.016677  1.016677  -63.626060    2   11 -1.0000 -1.0000   400101   391231   0 0   1 0   0.000000   0.000000     0 0   -1.00000   -1.00000    0.00000 82 "LINDSAY"     1 -1 " " 
   2038 "ECTOR 0     " 161.0000 " "  0  :  1 1.006331  1.006331  -64.301324    2   11 -1.0000 -1.0000   400101   391231   0 0   1 0   0.000000   0.000000     0 0   -1.00000   -1.00000    0.00000 83 "ECTOR"     1 -1 " " 
   2039 "SUNSET 0    " 161.0000 " "  0  :  1 0.991254  0.991254  -60.671164    2   11 -1.0000 -1.0000   400101   391231   0 0   1 0   0.000000   0.000000     0 0   -1.00000   -1.00000    0.00000 84 "SUNSET"     1 -1 " " 
   2040 "CLARKSVILL~1" 161.0000 " "  0  :  1 1.007438  1.007438  -59.308023    2   11 -1.0000 -1.0000   400101   391231   0 0   1 0   0.000000   0.000000     0 0   -1.00000   -1.00000    0.00000 85 "CLARKSVILLE"     1 -1 " " 
   2041 "PANHANDLE ~5" 161.0000 " "  0  :  1 1.028022  1.028022  -27.686092    2   10 -1.0000 -1.0000   400101   391231   0 0   1 0   0.000000   0.000000     0 0   -1.00000   -1.00000    0.00000 86 "PANHANDLE 3"     1 -1 " " 
   2042 "PANHANDLE ~6"  18.0000 " "  0  :  2 1.010000 1.019428  -25.110830    2   10 -1.0000 -1.0000   400101   391231   0 0   1 0   0.000000   0.000000     0 0   -1.00000   -1.00000    0.00000 86 "PANHANDLE 3"     1 -1 " " 
   2043 "SADLER 0    " 161.0000 " "  0  :  1 1.005046  1.005046  -69.589647    2   11 -1.0000 -1.0000   400101   391231   0 0   1 0   0.000000   0.000000     0 0   -1.00000   -1.00000    0.00000 87 "SADLER"     1 -1 " " 
   2044 "WHITESBORO 0" 161.0000 " "  0  :  1 1.013057  1.013057  -65.383329    2   11 -1.0000 -1.0000   400101   391231   0 0   1 0   0.000000   0.000000     0 0   -1.00000   -1.00000    0.00000 88 "WHITESBORO"     1 -1 " " 
   2045 "SHEPPARD A~1" 161.0000 " "  0  :  1 0.994450  0.994450  -45.423966    2   11 -1.0000 -1.0000   400101   391231   0 0   1 0   0.000000   0.000000     0 0   -1.00000   -1.00000    0.00000 89 "SHEPPARD AFB"     1 -1 " " 
   2046 "POTTSBORO 0 " 161.0000 " "  0  :  1 1.004559  1.004559  -68.896782    2   11 -1.0000 -1.0000   400101   391231   0 0   1 0   0.000000   0.000000     0 0   -1.00000   -1.00000    0.00000 90 "POTTSBORO"     1 -1 " " 
   2047 "BELLS 0     " 161.0000 " "  0  :  1 1.007902  1.007902  -64.729913    2   11 -1.0000 -1.0000   400101   391231   0 0   1 0   0.000000   0.000000     0 0   -1.00000   -1.00000    0.00000 91 "BELLS"     1 -1 " " 
   2048 "CROSBYTON 0 " 161.0000 " "  0  :  1 1.023703  1.023703  -31.710962    2   10 -1.0000 -1.0000   400101   391231   0 0   1 0   0.000000   0.000000     0 0   -1.00000   -1.00000    0.00000 92 "CROSBYTON"     1 -1 " " 
   2049 "ELECTRA 0   " 161.0000 " "  0  :  1 1.017758  1.017758  -40.946465    2   10 -1.0000 -1.0000   400101   391231   0 0   1 0   0.000000   0.000000     0 0   -1.00000   -1.00000    0.00000 93 "ELECTRA"     1 -1 " " 
   2050 "PATTONVILL~1" 161.0000 " "  0  :  1 0.994192  0.994192  -63.235410    2   11 -1.0000 -1.0000   400101   391231   0 0   1 0   0.000000   0.000000     0 0   -1.00000   -1.00000    0.00000 94 "PATTONVILLE"     1 -1 " " 
   2051 "HENRIETTA 0 " 161.0000 " "  0  :  1 0.989552  0.989552  -54.140347    2   11 -1.0000 -1.0000   400101   391231   0 0   1 0   0.000000   0.000000     0 0   -1.00000   -1.00000    0.00000 95 "HENRIETTA"     1 -1 " " 
   2052 "PANHANDLE~13" 161.0000 " "  0  :  1 1.017445  1.017445  -31.963470    2   10 -1.0000 -1.0000   400101   391231   0 0   1 0   0.000000   0.000000     0 0   -1.00000   -1.00000    0.00000 96 "PANHANDLE 6"     1 -1 " " 
   2053 "BOWIE 0     " 161.0000 " "  0  :  1 0.991063  0.991063  -59.360379    2   11 -1.0000 -1.0000   400101   391231   0 0   1 0   0.000000   0.000000     0 0   -1.00000   -1.00000    0.00000 97 "BOWIE"     1 -1 " " 
   2054 "WICHITA FA~1" 500.0000 " "  0  :  1 0.997781  0.997781  -43.131310    2   11 -1.0000 -1.0000   400101   391231   0 0   1 0   0.000000   0.000000     0 0   -1.00000   -1.00000    0.00000 98 "WICHITA FALLS 1"     1 -1 " " 
   2055 "WICHITA FA~2" 161.0000 " "  0  :  1 0.997332  0.997332  -43.960678    2   11 -1.0000 -1.0000   400101   391231   0 0   1 0   0.000000   0.000000     0 0   -1.00000   -1.00000    0.00000 98 "WICHITA FALLS 1"     1 -1 " " 
   2056 "WICHITA FA~3"  18.0000 " "  0  :  2 0.990000 0.997781  -43.131310    2   11 -1.0000 -1.0000   400101   391231   0 0   1 0   0.000000   0.000000     0 0   -1.00000   -1.00000    0.00000 98 "WICHITA FALLS 1"     1 -1 " " 
   2057 "WICHITA FA~4"  18.0000 " "  0  :  2 0.990000 0.990000  -38.725286    2   11 -1.0000 -1.0000   400101   391231   0 0   1 0   0.000000   0.000000     0 0   -1.00000   -1.00000    0.00000 98 "WICHITA FALLS 1"     1 -1 " " 
   2058 "WHITE DEER 0" 161.0000 " "  0  :  1 1.028360  1.028360  -27.258033    2   10 -1.0000 -1.0000   400101   391231   0 0   1 0   0.000000   0.000000     0 0   -1.00000   -1.00000    0.00000 99 "WHITE DEER"     1 -1 " " 
   2059 "WHITE DEER 1"  13.8000 " "  0  :  2 1.000000 1.018362  -23.911715    2   10 -1.0000 -1.0000   400101   391231   0 0   1 0   0.000000   0.000000     0 0   -1.00000   -1.00000    0.00000 99 "WHITE DEER"     1 -1 " " 
   2060 "ROXTON 0    " 161.0000 " "  0  :  1 0.997405  0.997405  -61.950951    2   11 -1.0000 -1.0000   400101   391231   0 0   1 0   0.000000   0.000000     0 0   -1.00000   -1.00000    0.00000 100 "ROXTON"     1 -1 " " 
   2061 "VERNON 1 0  " 161.0000 " "  0  :  1 1.021175  1.021175  -37.427819    2   10 -1.0000 -1.0000   400101   391231   0 0   1 0   0.000000   0.000000     0 0   -1.00000   -1.00000    0.00000 101 "VERNON 1"     1 -1 " " 
   2062 "VERNON 1 1  "  18.0000 " "  0  :  2 1.020000 1.020000  -35.131000    2   10 -1.0000 -1.0000   400101   391231   0 0   1 0   0.000000   0.000000     0 0   -1.00000   -1.00000    0.00000 101 "VERNON 1"     1 -1 " " 
   2063 "DENISON 2 0 " 161.0000 " "  0  :  1 1.030000 1.006064  -68.258359    2   11 -1.0000 -1.0000   400101   391231   0 0   1 0   0.000000   0.000000     0 0   -1.00000   -1.00000    0.00000 102 "DENISON 2"     1 -1 " " 
   2064 "SUMNER 0    " 161.0000 " "  0  :  1 1.003106  1.003106  -60.277381    2   11 -1.0000 -1.0000   400101   391231   0 0   1 0   0.000000   0.000000     0 0   -1.00000   -1.00000    0.00000 103 "SUMNER"     1 -1 " " 
   2065 "GAINESVILL~1" 161.0000 " "  0  :  1 1.030000 1.020000  -65.600732    2   11 -1.0000 -1.0000   400101   391231   0 0   1 0   0.000000   0.000000     0 0   -1.00000   -1.00000    0.00000 104 "GAINESVILLE"     1 -1 " " 
   2066 "ASPERMONT 0 " 161.0000 " "  0  :  1 1.014436  1.014436  -27.628767    2   10 -1.0000 -1.0000   400101   391231   0 0   1 0   0.000000   0.000000     0 0   -1.00000   -1.00000    0.00000 105 "ASPERMONT"     1 -1 " " 
   2067 "WICHITA F~11" 161.0000 " "  0  :  1 0.992357  0.992357  -44.047987    2   11 -1.0000 -1.0000   400101   391231   0 0   1 0   0.000000   0.000000     0 0   -1.00000   -1.00000    0.00000 106 "WICHITA FALLS 5"     1 -1 " " 
   2068 "WINDTHORST 0" 161.0000 " "  0  :  1 0.998995  0.998995  -42.016304    2   11 -1.0000 -1.0000   400101   391231   0 0   1 0   0.000000   0.000000     0 0   -1.00000   -1.00000    0.00000 107 "WINDTHORST"     1 -1 " " 
   2069 "HOWE 0      " 161.0000 " "  0  :  1 1.030000 1.020000  -69.116814    2   11 -1.0000 -1.0000   400101   391231   0 0   1 0   0.000000   0.000000     0 0   -1.00000   -1.00000    0.00000 108 "HOWE"     1 -1 " " 
   2070 "ARCHER 2 0  " 161.0000 " "  0  :  1 1.001077  1.001077  -41.598099    2   11 -1.0000 -1.0000   400101   391231   0 0   1 0   0.000000   0.000000     0 0   -1.00000   -1.00000    0.00000 109 "ARCHER 2"     1 -1 " " 
   2071 "ARCHER 2 1  "  18.0000 " "  0  :  2 1.000000 1.000000  -37.919678    2   11 -1.0000 -1.0000   400101   391231   0 0   1 0   0.000000   0.000000     0 0   -1.00000   -1.00000    0.00000 109 "ARCHER 2"     1 -1 " " 
   2072 "COLLINSVIL~1" 161.0000 " "  0  :  1 1.014876  1.014876  -67.240635    2   11 -1.0000 -1.0000   400101   391231   0 0   1 0   0.000000   0.000000     0 0   -1.00000   -1.00000    0.00000 110 "COLLINSVILLE"     1 -1 " " 
   2073 "JAYTON 0    " 161.0000 " "  0  :  1 1.015514  1.015514  -25.108834    2   10 -1.0000 -1.0000   400101   391231   0 0   1 0   0.000000   0.000000     0 0   -1.00000   -1.00000    0.00000 111 "JAYTON"     1 -1 " " 
   2074 "JAYTON 1    " 115.0000 " "  0  :  1 1.005849  1.005849  -23.236834    2   10 -1.0000 -1.0000   400101   391231   0 0   1 0   0.000000   0.000000     0 0   -1.00000   -1.00000    0.00000 111 "JAYTON"     1 -1 " " 
   2075 "JAYTON 2    " 115.0000 " "  0  :  1 1.005849  1.005849  -23.236834    2   10 -1.0000 -1.0000   400101   391231   0 0   1 0   0.000000   0.000000     0 0   -1.00000   -1.00000    0.00000 111 "JAYTON"     1 -1 " " 
   2076 "JAYTON 3    "  24.0000 " "  0  :  2 1.040000 1.020777  -24.202140    2   10 -1.0000 -1.0000   400101   391231   0 0   1 0   0.000000   0.000000     0 0   -1.00000   -1.00000    0.00000 111 "JAYTON"     1 -1 " " 
   2077 "MUENSTER 1 0" 161.0000 " "  0  :  1 1.017896  1.017896  -61.197723    2   11 -1.0000 -1.0000   400101   391231   0 0   1 0   0.000000   0.000000     0 0   -1.00000   -1.00000    0.00000 112 "MUENSTER 1"     1 -1 " " 
   2078 "MUENSTER 1 1"  13.8000 " "  0  :  2 1.020000 1.020000  -57.875001    2   11 -1.0000 -1.0000   400101   391231   0 0   1 0   0.000000   0.000000     0 0   -1.00000   -1.00000    0.00000 112 "MUENSTER 1"     1 -1 " " 
   2079 "PADUCAH 0   " 161.0000 " "  0  :  1 1.022299  1.022299  -34.626738    2   10 -1.0000 -1.0000   400101   391231   0 0   1 0   0.000000   0.000000     0 0   -1.00000   -1.00000    0.00000 113 "PADUCAH"     1 -1 " " 
   2080 "NOCONA 0    " 161.0000 " "  0  :  1 0.994622  0.994622  -57.499175    2   11 -1.0000 -1.0000   400101   391231   0 0   1 0   0.000000   0.000000     0 0   -1.00000   -1.00000    0.00000 114 "NOCONA"     1 -1 " " 
   2081 "DODD CITY 0 " 161.0000 " "  0  :  1 1.000936  1.000936  -65.107672    2   11 -1.0000 -1.0000   400101   391231   0 0   1 0   0.000000   0.000000     0 0   -1.00000   -1.00000    0.00000 115 "DODD CITY"     1 -1 " " 
   2082 "WICHITA FA~5" 161.0000 " "  0  :  1 1.002871  1.002871  -44.826631    2   11 -1.0000 -1.0000   400101   391231   0 0   1 0   0.000000   0.000000     0 0   -1.00000   -1.00000    0.00000 116 "WICHITA FALLS 2"     1 -1 " " 
   2083 "WICHITA FA~6"  20.0000 " "  0  :  2 1.020000 1.017591  -43.247104    2   11 -1.0000 -1.0000   400101   391231   0 0   1 0   0.000000   0.000000     0 0   -1.00000   -1.00000    0.00000 116 "WICHITA FALLS 2"     1 -1 " " 
   2084 "WICHITA FA~7"  20.0000 " "  0  :  2 1.020000 1.002871  -44.826631    2   11 -1.0000 -1.0000   400101   391231   0 0   1 0   0.000000   0.000000     0 0   -1.00000   -1.00000    0.00000 116 "WICHITA FALLS 2"     1 -1 " " 
   2085 "WICHITA FA~8"  20.0000 " "  0  :  2 1.020000 1.002871  -44.826631    2   11 -1.0000 -1.0000   400101   391231   0 0   1 0   0.000000   0.000000     0 0   -1.00000   -1.00000    0.00000 116 "WICHITA FALLS 2"     1 -1 " " 
   2086 "MONTAGUE 0  " 161.0000 " "  0  :  1 0.992445  0.992445  -59.474499    2   11 -1.0000 -1.0000   400101   391231   0 0   1 0   0.000000   0.000000     0 0   -1.00000   -1.00000    0.00000 117 "MONTAGUE"     1 -1 " " 
   2087 "SPUR 0      " 161.0000 " "  0  :  1 1.017379  1.017379  -27.472635    2   10 -1.0000 -1.0000   400101   391231   0 0   1 0   0.000000   0.000000     0 0   -1.00000   -1.00000    0.00000 118 "SPUR"     1 -1 " " 
   2088 "ARCHER 1 0  " 161.0000 " "  0  :  1 1.000071  1.000071  -41.716402    2   11 -1.0000 -1.0000   400101   391231   0 0   1 0   0.000000   0.000000     0 0   -1.00000   -1.00000    0.00000 119 "ARCHER 1"     1 -1 " " 
   2089 "ARCHER 1 1  "  24.0000 " "  0  :  2 1.000000 1.000000  -38.113501    2   11 -1.0000 -1.0000   400101   391231   0 0   1 0   0.000000   0.000000     0 0   -1.00000   -1.00000    0.00000 119 "ARCHER 1"     1 -1 " " 
   2090 "ANNONA 0    " 161.0000 " "  0  :  1 1.002523  1.002523  -61.033299    2   11 -1.0000 -1.0000   400101   391231   0 0   1 0   0.000000   0.000000     0 0   -1.00000   -1.00000    0.00000 120 "ANNONA"     1 -1 " " 
   2091 "SEYMOUR 0   " 161.0000 " "  0  :  1 1.016281  1.016281  -33.978550    2   10 -1.0000 -1.0000   400101   391231   0 0   1 0   0.000000   0.000000     0 0   -1.00000   -1.00000    0.00000 121 "SEYMOUR"     1 -1 " " 
   2092 "DENISON 1 0 " 161.0000 " "  0  :  1 1.005424  1.005424  -66.568503    2   11 -1.0000 -1.0000   400101   391231   0 0   1 0   0.000000   0.000000     0 0   -1.00000   -1.00000    0.00000 122 "DENISON 1"     1 -1 " " 
   2093 "PANHANDLE~10" 161.0000 " "  0  :  1 1.027271  1.027271  -30.621379    2   10 -1.0000 -1.0000   400101   391231   0 0   1 0   0.000000   0.000000     0 0   -1.00000   -1.00000    0.00000 123 "PANHANDLE 5"     1 -1 " " 
   2094 "PANHANDLE~11"  13.8000 " "  0  :  2 1.000000 1.027271  -30.621379    2   10 -1.0000 -1.0000   400101   391231   0 0   1 0   0.000000   0.000000     0 0   -1.00000   -1.00000    0.00000 123 "PANHANDLE 5"     1 -1 " " 
   2095 "PANHANDLE~12"  13.8000 " "  0  :  2 1.000000 1.027271  -30.621379    2   10 -1.0000 -1.0000   400101   391231   0 0   1 0   0.000000   0.000000     0 0   -1.00000   -1.00000    0.00000 123 "PANHANDLE 5"     1 -1 " " 
   2096 "RALLS 1 0   " 500.0000 " "  0  :  1 1.030000 1.020000  -27.843170    2   10 -1.0000 -1.0000   400101   391231   0 0   1 0   0.000000   0.000000     0 0   -1.00000   -1.00000    0.00000 124 "RALLS 1"     1 -1 " " 
   2097 "RALLS 1 1   " 230.0000 " "  0  :  1 1.019266  1.019266  -27.282308    2   10 -1.0000 -1.0000   400101   391231   0 0   1 0   0.000000   0.000000     0 0   -1.00000   -1.00000    0.00000 124 "RALLS 1"     1 -1 " " 
   2098 "RALLS 1 2   " 161.0000 " "  0  :  1 1.025648  1.025648  -30.426538    2   10 -1.0000 -1.0000   400101   391231   0 0   1 0   0.000000   0.000000     0 0   -1.00000   -1.00000    0.00000 124 "RALLS 1"     1 -1 " " 
   2099 "RALLS 1 3   "  18.0000 " "  0  :  2 1.020000 1.020000  -27.699549    2   10 -1.0000 -1.0000   400101   391231   0 0   1 0   0.000000   0.000000     0 0   -1.00000   -1.00000    0.00000 124 "RALLS 1"     1 -1 " " 
   2100 "RALLS 1 4   "  18.0000 " "  0  :  2 1.020000 1.020000  -25.218709    2   10 -1.0000 -1.0000   400101   391231   0 0   1 0   0.000000   0.000000     0 0   -1.00000   -1.00000    0.00000 124 "RALLS 1"     1 -1 " " 
   2101 "SHERMAN 1 0 " 500.0000 " "  0  :  1 1.010539  1.010539  -62.673279    2   11 -1.0000 -1.0000   400101   391231   0 0   1 0   0.000000   0.000000     0 0   -1.00000   -1.00000    0.00000 125 "SHERMAN 1"     1 -1 " " 
   2102 "SHERMAN 1 1 " 161.0000 " "  0  :  1 1.010592  1.010592  -64.120882    2   11 -1.0000 -1.0000   400101   391231   0 0   1 0   0.000000   0.000000     0 0   -1.00000   -1.00000    0.00000 125 "SHERMAN 1"     1 -1 " " 
   2103 "SHERMAN 1 2 "  20.0000 " "  0  :  2 1.000000 1.010539  -62.673279    2   11 -1.0000 -1.0000   400101   391231   0 0   1 0   0.000000   0.000000     0 0   -1.00000   -1.00000    0.00000 125 "SHERMAN 1"     1 -1 " " 
   2104 "SHERMAN 1 3 "  20.0000 " "  0  :  2 1.000000 1.010539  -62.673279    2   11 -1.0000 -1.0000   400101   391231   0 0   1 0   0.000000   0.000000     0 0   -1.00000   -1.00000    0.00000 125 "SHERMAN 1"     1 -1 " " 
   2105 "SHERMAN 1 4 "  20.0000 " "  0  :  2 1.000000 1.010539  -62.673279    2   11 -1.0000 -1.0000   400101   391231   0 0   1 0   0.000000   0.000000     0 0   -1.00000   -1.00000    0.00000 125 "SHERMAN 1"     1 -1 " " 
   2106 "WHITEWRIGH~1" 161.0000 " "  0  :  1 0.989133  0.989133  -66.198009    2   11 -1.0000 -1.0000   400101   391231   0 0   1 0   0.000000   0.000000     0 0   -1.00000   -1.00000    0.00000 126 "WHITEWRIGHT"     1 -1 " " 
   2107 "SHERMAN 2 0 " 161.0000 " "  0  :  1 1.005150  1.005150  -64.992908    2   11 -1.0000 -1.0000   400101   391231   0 0   1 0   0.000000   0.000000     0 0   -1.00000   -1.00000    0.00000 127 "SHERMAN 2"     1 -1 " " 
   2108 "ROCHESTER 0 " 161.0000 " "  0  :  1 0.999102  0.999102  -43.691094    2   10 -1.0000 -1.0000   400101   391231   0 0   1 0   0.000000   0.000000     0 0   -1.00000   -1.00000    0.00000 128 "ROCHESTER"     1 -1 " " 
   2109 "BURKBURNET~1" 161.0000 " "  0  :  1 1.006613  1.006613  -46.357265    2   11 -1.0000 -1.0000   400101   391231   0 0   1 0   0.000000   0.000000     0 0   -1.00000   -1.00000    0.00000 129 "BURKBURNETT"     1 -1 " " 
...
branch data  [ 2345]                                          ck  se  ------------long_id_------------    st resist   react   charge   rate1  rate2  rate3  rate4 aloss  lngth 
   1001 "ODESSA 2 0  " 115.00    1064 "ODESSA 3 0  " 115.00  "1 "   1 " "  :  1  0.005240  0.035800  0.006090  221.0    0.0    0.0    0.0 0.000    0.0 /
   1    9  0.000000  0.000000  1.000000   400101   391231   0 1  0    0.0    0.0    0.0    0.0   1 1.000   0 0.000   0 0.000   0 0.000   0 0.000   0 0.000   0 0.000   0 0.000  0 0  0  0  0  90.000 
   1001 "ODESSA 2 0  " 115.00    1064 "ODESSA 3 0  " 115.00  "2 "   1 " "  :  1  0.005240  0.035800  0.006090  221.0    0.0    0.0    0.0 0.000    0.0 /
   1    9  0.000000  0.000000  1.000000   400101   391231   0 1  0    0.0    0.0    0.0    0.0   1 1.000   0 0.000   0 0.000   0 0.000   0 0.000   0 0.000   0 0.000   0 0.000  0 0  0  0  0  90.000 
   1001 "ODESSA 2 0  " 115.00    1071 "ODESSA 1 0  " 115.00  "1 "   1 " "  :  1  0.004350  0.028080  0.005360  221.0    0.0    0.0    0.0 0.000    0.0 /
   1    9  0.000000  0.000000  1.000000   400101   391231   0 1  0    0.0    0.0    0.0    0.0   1 1.000   0 0.000   0 0.000   0 0.000   0 0.000   0 0.000   0 0.000   0 0.000  0 0  0  0  0  90.000 
   1001 "ODESSA 2 0  " 115.00    1071 "ODESSA 1 0  " 115.00  "2 "   1 " "  :  1  0.004350  0.028080  0.005360  221.0    0.0    0.0    0.0 0.000    0.0 /
   1    9  0.000000  0.000000  1.000000   400101   391231   0 1  0    0.0    0.0    0.0    0.0   1 1.000   0 0.000   0 0.000   0 0.000   0 0.000   0 0.000   0 0.000   0 0.000  0 0  0  0  0  90.000 
   1002 "PRESIDIO 2 0" 115.00    1007 "VAN HORN 0  " 115.00  "1 "   1 " "  :  1  0.077760  0.466930  0.063360   98.0    0.0    0.0    0.0 0.000    0.0 /
   1    9  0.000000  0.000000  1.000000   400101   391231   0 1  0    0.0    0.0    0.0    0.0   1 1.000   0 0.000   0 0.000   0 0.000   0 0.000   0 0.000   0 0.000   0 0.000  0 0  0  0  0  90.000 
   1004 "O DONNELL ~2" 230.00    3133 "SNYDER 2 0  " 230.00  "1 "   1 " "  :  1  0.004200  0.030000  0.055000  523.0    0.0    0.0    0.0 0.000    0.0 /
   3   27  0.000000  0.000000  1.000000   400101   391231   0 1  0    0.0    0.0    0.0    0.0   1 1.000   0 0.000   0 0.000   0 0.000   0 0.000   0 0.000   0 0.000   0 0.000  0 0  0  0  0  90.000 
   1005 "BIG SPRING~8" 115.00    1061 "BIG SPRIN~10" 115.00  "1 "   1 " "  :  1  0.005990  0.024840  0.004220  221.0    0.0    0.0    0.0 0.000    0.0 /
   1    9  0.000000  0.000000  1.000000   400101   391231   0 1  0    0.0    0.0    0.0    0.0   1 1.000   0 0.000   0 0.000   0 0.000   0 0.000   0 0.000   0 0.000   0 0.000  0 0  0  0  0  90.000 
   1007 "VAN HORN 0  " 115.00    1015 "MARFA 0     " 115.00  "1 "   1 " "  :  1  0.062240  0.373750  0.050720   98.0    0.0    0.0    0.0 0.000    0.0 /
   1    9  0.000000  0.000000  1.000000   400101   391231   0 1  0    0.0    0.0    0.0    0.0   1 1.000   0 0.000   0 0.000   0 0.000   0 0.000   0 0.000   0 0.000   0 0.000  0 0  0  0  0  90.000 
   1008 "IRAAN 2 0   " 115.00    1032 "MCCAMEY 1 0 " 115.00  "1 "   1 " "  :  1  0.045010  0.110020  0.014410   98.0    0.0    0.0    0.0 0.000    0.0 /
   1    9  0.000000  0.000000  1.000000   400101   391231   0 1  0    0.0    0.0    0.0    0.0   1 1.000   0 0.000   0 0.000   0 0.000   0 0.000   0 0.000   0 0.000   0 0.000  0 0  0  0  0  90.000 
   1008 "IRAAN 2 0   " 115.00    1069 "IRAAN 1 0   " 115.00  "1 "   1 " "  :  1  0.008300  0.036280  0.005530  149.0    0.0    0.0    0.0 0.000    0.0 /
   1    9  0.000000  0.000000  1.000000   400101   391231   0 1  0    0.0    0.0    0.0    0.0   1 1.000   0 0.000   0 0.000   0 0.000   0 0.000   0 0.000   0 0.000   0 0.000  0 0  0  0  0  90.000 
   1010 "PRESIDIO 1 0" 115.00    1002 "PRESIDIO 2 0" 115.00  "1 "   1 " "  :  1  0.055520  0.135700  0.017770   98.0    0.0    0.0    0.0 0.000    0.0 /
   1    9  0.000000  0.000000  1.000000   400101   391231   0 1  0    0.0    0.0    0.0    0.0   1 1.000   0 0.000   0 0.000   0 0.000   0 0.000   0 0.000   0 0.000   0 0.000  0 0  0  0  0  90.000 
   1010 "PRESIDIO 1 0" 115.00    1015 "MARFA 0     " 115.00  "1 "   1 " "  :  1  0.047030  0.282430  0.038330   98.0    0.0    0.0    0.0 0.000    0.0 /
   1    9  0.000000  0.000000  1.000000   400101   391231   0 1  0    0.0    0.0    0.0    0.0   1 1.000   0 0.000   0 0.000   0 0.000   0 0.000   0 0.000   0 0.000   0 0.000  0 0  0  0  0  90.000 
   1010 "PRESIDIO 1 0" 115.00    1030 "ALPINE 0    " 115.00  "1 "   1 " "  :  1  0.061600  0.369900  0.050200   98.0    0.0    0.0    0.0 0.000    0.0 /
   1    9  0.000000  0.000000  1.000000   400101   391231   0 1  0    0.0    0.0    0.0    0.0   1 1.000   0 0.000   0 0.000   0 0.000   0 0.000   0 0.000   0 0.000   0 0.000  0 0  0  0  0  90.000 
...